Program Version,EnergyPlus, Version 9.4.0-998c4b761e, YMD=2020.12.17 21:22,
   ** Warning ** GetSurfaceData: Window dimensions differ from Window 5/6 data file dimensions, 1 times.
   **   ~~~   ** This will affect the frame heat transfer calculation if the frame in the Data File entry
   **   ~~~   ** is not uniform, i.e., has sections with different geometry and/or thermal properties.
   **   ~~~   ** For explicit details on each window, use Output:Diagnostics,DisplayExtraWarnings;
   ************* Testing Individual Branch Integrity
   ************* All Branches passed integrity testing
   ************* Testing Individual Supply Air Path Integrity
   ************* All Supply Air Paths passed integrity testing
   ************* Testing Individual Return Air Path Integrity
   ************* All Return Air Paths passed integrity testing
   ************* No node connection errors were found.
   ************* Beginning Simulation
   ************* Simulation Error Summary *************
   ************* EnergyPlus Warmup Error Summary. During Warmup: 0 Warning; 0 Severe Errors.
   ************* EnergyPlus Sizing Error Summary. During Sizing: 0 Warning; 0 Severe Errors.
   ************* EnergyPlus Completed Successfully-- 0 Warning; 0 Severe Errors; Elapsed Time=00hr 00min  0.35sec
