Program Version,EnergyPlus, Version 9.4.0-998c4b761e, YMD=2021.01.12 20:09,
   ** Severe  ** <root>[SetpointManager:SingleZone:Reheat][Setpoint Manager Single Zone Reheat 1] - Missing required property 'control_zone_name'.
   ** Severe  ** <root>[SetpointManager:SingleZone:Reheat][Setpoint Manager Single Zone Reheat 1] - Missing required property 'zone_inlet_node_name'.
   ** Severe  ** <root>[SetpointManager:SingleZone:Reheat][Setpoint Manager Single Zone Reheat 1] - Missing required property 'zone_node_name'.
   **  Fatal  ** Errors occurred on processing input file. Preceding condition(s) cause termination.
   ...Summary of Errors that led to program termination:
   ..... Reference severe error count=3
   ..... Last severe error=<root>[SetpointManager:SingleZone:Reheat][Setpoint Manager Single Zone Reheat 1] - Missing required property 'zone_node_name'.
   ************* Warning:  Node connection errors not checked - most system input has not been read (see previous warning).
   ************* Fatal error -- final processing.  Program exited before simulations began.  See previous error messages.
   ************* EnergyPlus Warmup Error Summary. During Warmup: 0 Warning; 0 Severe Errors.
   ************* EnergyPlus Sizing Error Summary. During Sizing: 0 Warning; 0 Severe Errors.
   ************* EnergyPlus Terminated--Fatal Error Detected. 0 Warning; 3 Severe Errors; Elapsed Time=00hr 00min  0.40sec
